test/data/matpower/multi_nw/bus_80/pypsa-eur_multinetwork_80/mpc_005_022.m
function mpc = mpc_005_022
%MPC_005_022	Extended MATPOWER case file generated from aggregated PyPSA generator and load data
%	Period: 5 	Weight: 31
%	Time step: 22

%%	MATPOWER Case Format : Version 2
mpc.version = '2';

%% system MVA base
mpc.baseMVA = 100;

%% Weight
mpc.weight = 31;

%% bus data
%	bus_i	type	Pd	Qd	Gs	Bs	area	Vm	Va	baseKV	zone	Vmax	Vmin
mpc.bus = [
	1	2	422.1123238107709	0.0	0.0	0.0	1	1.0	0.0	230.0	1	1.1	0.9;	%AL1 0
	2	2	671.2757605447251	0.0	0.0	0.0	2	1.0	0.0	230.0	1	1.1	0.9;	%AT1 0
	3	2	3121.563147279156	0.0	0.0	0.0	3	1.0	0.0	230.0	1	1.1	0.9;	%AT1 1
	4	2	2298.1188398274467	0.0	0.0	0.0	4	1.0	0.0	230.0	1	1.1	0.9;	%AT1 2
	5	2	1134.7279625316103	0.0	0.0	0.0	5	1.0	0.0	230.0	1	1.1	0.9;	%BA1 0
	6	2	8226.036563873136	0.0	0.0	0.0	6	1.0	0.0	230.0	1	1.1	0.9;	%BE1 0
	7	2	3438.104650959934	0.0	0.0	0.0	7	1.0	0.0	230.0	1	1.1	0.9;	%BG1 0
	8	2	2428.2023785502747	0.0	0.0	0.0	8	1.0	0.0	230.0	1	1.1	0.9;	%CH1 0
	9	2	984.4586898499136	0.0	0.0	0.0	9	1.0	0.0	230.0	1	1.1	0.9;	%CH1 1
	10	2	1322.2482048083298	0.0	0.0	0.0	10	1.0	0.0	230.0	1	1.1	0.9;	%CH1 2
	11	2	1101.2567228460157	0.0	0.0	0.0	11	1.0	0.0	230.0	1	1.1	0.9;	%CZ1 0
	12	2	2858.303012982211	0.0	0.0	0.0	12	1.0	0.0	230.0	1	1.1	0.9;	%CZ1 1
	13	2	1867.6983683719827	0.0	0.0	0.0	13	1.0	0.0	230.0	1	1.1	0.9;	%CZ1 2
	14	2	3143.521318856623	0.0	0.0	0.0	14	1.0	0.0	230.0	1	1.1	0.9;	%DE1 0
	15	2	1079.7356293003593	0.0	0.0	0.0	15	1.0	0.0	230.0	1	1.1	0.9;	%DE1 1
	16	2	1757.973659704776	0.0	0.0	0.0	16	1.0	0.0	230.0	1	1.1	0.9;	%DE1 10
	17	2	2079.497876452892	0.0	0.0	0.0	17	1.0	0.0	230.0	1	1.1	0.9;	%DE1 11
	18	2	334.6160522515893	0.0	0.0	0.0	18	1.0	0.0	230.0	1	1.1	0.9;	%DE1 12
	19	2	866.6945179580708	0.0	0.0	0.0	19	1.0	0.0	230.0	1	1.1	0.9;	%DE1 13
	20	2	1898.9839373123982	0.0	0.0	0.0	20	1.0	0.0	230.0	1	1.1	0.9;	%DE1 14
	21	2	2060.556084503918	0.0	0.0	0.0	21	1.0	0.0	230.0	1	1.1	0.9;	%DE1 15
	22	2	653.8075796193714	0.0	0.0	0.0	22	1.0	0.0	230.0	1	1.1	0.9;	%DE1 16
	23	2	2525.6842224292027	0.0	0.0	0.0	23	1.0	0.0	230.0	1	1.1	0.9;	%DE1 17
	24	2	434.1669807979043	0.0	0.0	0.0	24	1.0	0.0	230.0	1	1.1	0.9;	%DE1 18
	25	2	1294.1596292806673	0.0	0.0	0.0	25	1.0	0.0	230.0	1	1.1	0.9;	%DE1 19
	26	2	4099.690881555341	0.0	0.0	0.0	26	1.0	0.0	230.0	1	1.1	0.9;	%DE1 2
	27	2	652.5097687718669	0.0	0.0	0.0	27	1.0	0.0	230.0	1	1.1	0.9;	%DE1 20
	28	2	1557.9304785212532	0.0	0.0	0.0	28	1.0	0.0	230.0	1	1.1	0.9;	%DE1 21
	29	2	1522.3235163489917	0.0	0.0	0.0	29	1.0	0.0	230.0	1	1.1	0.9;	%DE1 22
	30	2	1191.9747972195676	0.0	0.0	0.0	30	1.0	0.0	230.0	1	1.1	0.9;	%DE1 23
	31	2	892.904520015262	0.0	0.0	0.0	31	1.0	0.0	230.0	1	1.1	0.9;	%DE1 24
	32	2	868.403872334236	0.0	0.0	0.0	32	1.0	0.0	230.0	1	1.1	0.9;	%DE1 25
	33	2	864.9783791991703	0.0	0.0	0.0	33	1.0	0.0	230.0	1	1.1	0.9;	%DE1 26
	34	2	701.6601534375978	0.0	0.0	0.0	34	1.0	0.0	230.0	1	1.1	0.9;	%DE1 27
	35	2	1428.453926331628	0.0	0.0	0.0	35	1.0	0.0	230.0	1	1.1	0.9;	%DE1 28
	36	2	1358.7651929357469	0.0	0.0	0.0	36	1.0	0.0	230.0	1	1.1	0.9;	%DE1 29
	37	2	2059.523259655516	0.0	0.0	0.0	37	1.0	0.0	230.0	1	1.1	0.9;	%DE1 3
	38	2	314.87260154198674	0.0	0.0	0.0	38	1.0	0.0	230.0	1	1.1	0.9;	%DE1 30
	39	2	1748.2077615910473	0.0	0.0	0.0	39	1.0	0.0	230.0	1	1.1	0.9;	%DE1 4
	40	2	1612.9109699781457	0.0	0.0	0.0	40	1.0	0.0	230.0	1	1.1	0.9;	%DE1 5
	41	2	1052.7226581552572	0.0	0.0	0.0	41	1.0	0.0	230.0	1	1.1	0.9;	%DE1 6
	42	2	1711.6927034414225	0.0	0.0	0.0	42	1.0	0.0	230.0	1	1.1	0.9;	%DE1 7
	43	2	1701.2392202488286	0.0	0.0	0.0	43	1.0	0.0	230.0	1	1.1	0.9;	%DE1 8
	44	2	1881.9500809400472	0.0	0.0	0.0	44	1.0	0.0	230.0	1	1.1	0.9;	%DE1 9
	45	2	1512.3347296051968	0.0	0.0	0.0	45	1.0	0.0	230.0	1	1.1	0.9;	%DK1 0
	46	2	1155.0026556322769	0.0	0.0	0.0	46	1.0	0.0	230.0	1	1.1	0.9;	%DK2 0
	47	2	620.4573593360466	0.0	0.0	0.0	47	1.0	0.0	230.0	1	1.1	0.9;	%EE6 0
	48	2	24120.332988933587	0.0	0.0	0.0	48	1.0	0.0	230.0	1	1.1	0.9;	%ES1 0
	49	2	521.350063600361	0.0	0.0	0.0	49	1.0	0.0	230.0	1	1.1	0.9;	%ES4 0
	50	2	7887.543938231902	0.0	0.0	0.0	50	1.0	0.0	230.0	1	1.1	0.9;	%FI2 0
	51	2	9789.01150656676	0.0	0.0	0.0	51	1.0	0.0	230.0	1	1.1	0.9;	%FR1 0
	52	2	7085.019851263338	0.0	0.0	0.0	52	1.0	0.0	230.0	1	1.1	0.9;	%FR1 1
	53	2	14439.86286736457	0.0	0.0	0.0	53	1.0	0.0	230.0	1	1.1	0.9;	%FR1 2
	54	2	9034.09706134393	0.0	0.0	0.0	54	1.0	0.0	230.0	1	1.1	0.9;	%FR1 3
	55	2	29194.049244081085	0.0	0.0	0.0	55	1.0	0.0	230.0	1	1.1	0.9;	%GB0 0
	56	2	718.9289392188967	0.0	0.0	0.0	56	1.0	0.0	230.0	1	1.1	0.9;	%GB5 0
	57	2	4776.028283353275	0.0	0.0	0.0	57	1.0	0.0	230.0	1	1.1	0.9;	%GR1 0
	58	2	1547.708138360277	0.0	0.0	0.0	58	1.0	0.0	230.0	1	1.1	0.9;	%HR1 0
	59	2	3804.1518858465424	0.0	0.0	0.0	59	1.0	0.0	230.0	1	1.1	0.9;	%HU1 0
	60	2	2538.0340796316027	0.0	0.0	0.0	60	1.0	0.0	230.0	1	1.1	0.9;	%IE5 0
	61	2	28476.416251992425	0.0	0.0	0.0	61	1.0	0.0	230.0	1	1.1	0.9;	%IT1 0
	62	2	1524.5628039535738	0.0	0.0	0.0	62	1.0	0.0	230.0	1	1.1	0.9;	%IT3 0
	63	2	881.9791111687705	0.0	0.0	0.0	63	1.0	0.0	230.0	1	1.1	0.9;	%LT6 0
	64	2	566.0320763216714	0.0	0.0	0.0	64	1.0	0.0	230.0	1	1.1	0.9;	%LU1 0
	65	2	569.7619593197415	0.0	0.0	0.0	65	1.0	0.0	230.0	1	1.1	0.9;	%LV6 0
	66	2	321.6045738619561	0.0	0.0	0.0	66	1.0	0.0	230.0	1	1.1	0.9;	%ME1 0
	67	2	761.8612673657817	0.0	0.0	0.0	67	1.0	0.0	230.0	1	1.1	0.9;	%MK1 0
	68	2	3826.3103827341015	0.0	0.0	0.0	68	1.0	0.0	230.0	1	1.1	0.9;	%NL1 0
	69	2	5240.033615457311	0.0	0.0	0.0	69	1.0	0.0	230.0	1	1.1	0.9;	%NL1 1
	70	2	1722.4248626492285	0.0	0.0	0.0	70	1.0	0.0	230.0	1	1.1	0.9;	%NL1 2
	71	2	10721.463333163592	0.0	0.0	0.0	71	1.0	0.0	230.0	1	1.1	0.9;	%NO2 0
	72	2	3614.976125864717	0.0	0.0	0.0	72	1.0	0.0	230.0	1	1.1	0.9;	%PL1 0
	73	2	7794.529175479544	0.0	0.0	0.0	73	1.0	0.0	230.0	1	1.1	0.9;	%PL1 1
	74	2	2477.8370405556025	0.0	0.0	0.0	74	1.0	0.0	230.0	1	1.1	0.9;	%PL1 2
	75	2	4980.998305145795	0.0	0.0	0.0	75	1.0	0.0	230.0	1	1.1	0.9;	%PT1 0
	76	2	4667.350200473653	0.0	0.0	0.0	76	1.0	0.0	230.0	1	1.1	0.9;	%RO1 0
	77	2	3580.528082827501	0.0	0.0	0.0	77	1.0	0.0	230.0	1	1.1	0.9;	%RS1 0
	78	2	11778.870897430748	0.0	0.0	0.0	78	1.0	0.0	230.0	1	1.1	0.9;	%SE2 0
	79	2	1310.8585103421328	0.0	0.0	0.0	79	1.0	0.0	230.0	1	1.1	0.9;	%SI1 0
	80	2	2754.217253816569	0.0	0.0	0.0	80	1.0	0.0	230.0	1	1.1	0.9;	%SK1 0
];

%% generator data
%	bus	Pg	Qg	Qmax	Qmin	Vg	mBase	status	Pmax	Pmin	H	n0	nE	nE_max	P_b_nom	carrier
mpc.gen = [
	1	0.0	0.0	0.0	-0.0	1.0	100.0	1	224.0	78.4	5.0	0	0	500	224.0	0;	%AL1 0 CCGT
	1	0.0	0.0	0.0	-0.0	1.0	100.0	1	224.0	78.4	2.8	0	0	500	224.0	1;	%AL1 0 OCGT
	1	0.0	0.0	0.0	-0.0	1.0	100.0	1	0.3414760860587545	0.0	0.0	0	0	5500	17.0	2;	%AL1 0 offwind
	1	0.0	0.0	0.0	-0.0	1.0	100.0	1	44.92727152904733	0.0	2.8	2	2	2	50.0	3;	%AL1 0 oil
	1	0.0	0.0	0.0	-0.0	1.0	100.0	1	0.12901099828877002	0.0	0.0	0	0	2500	38.0	4;	%AL1 0 onwind
	1	0.0	0.0	0.0	-0.0	1.0	100.0	1	3.525359042472956	0.0	3.5	2	2	2	26.0	5;	%AL1 0 ror
	1	0.0	0.0	0.0	-0.0	1.0	100.0	1	0.0	0.0	0.0	1	1	3400	28.0	6;	%AL1 0 solar
	2	0.0	0.0	0.0	-0.0	1.0	100.0	1	224.0	78.4	5.0	0	0	700	224.0	0;	%AT1 0 CCGT
	2	0.0	0.0	0.0	-0.0	1.0	100.0	1	224.0	78.4	2.8	0	0	700	224.0	1;	%AT1 0 OCGT
	2	0.0	0.0	0.0	-0.0	1.0	100.0	1	0.0	0.0	0.0	2	2	3700	38.0	4;	%AT1 0 onwind
	2	0.0	0.0	0.0	-0.0	1.0	100.0	1	12.81539195950344	0.0	3.5	9	9	9	26.0	5;	%AT1 0 ror
	2	0.0	0.0	0.0	-0.0	1.0	100.0	1	0.0	0.0	0.0	10	10	5000	28.0	6;	%AT1 0 solar
	3	0.0	0.0	0.0	-0.0	1.0	100.0	1	211.5888888888889	78.4	5.0	18	18	8700	224.0	0;	%AT1 1 CCGT
	3	0.0	0.0	0.0	-0.0	1.0	100.0	1	224.0	78.4	2.8	0	0	8700	224.0	1;	%AT1 1 OCGT
	3	0.0	0.0	0.0	-0.0	1.0	100.0	1	0.9322527948049796	0.0	0.0	66	66	50900	38.0	4;	%AT1 1 onwind
	3	0.0	0.0	0.0	-0.0	1.0	100.0	1	13.708879520911372	0.0	3.5	89	89	89	26.0	5;	%AT1 1 ror
	3	0.0	0.0	0.0	-0.0	1.0	100.0	1	0.0	0.0	0.0	39	39	69000	28.0	6;	%AT1 1 solar
	4	0.0	0.0	0.0	-0.0	1.0	100.0	1	181.5666666666667	78.4	5.0	3	3	4000	224.0	0;	%AT1 2 CCGT
	4	0.0	0.0	0.0	-0.0	1.0	100.0	1	224.0	78.4	2.8	0	0	4000	224.0	1;	%AT1 2 OCGT
	4	0.0	0.0	0.0	-0.0	1.0	100.0	1	0.0033472682253707043	0.0	0.0	19	19	23100	38.0	4;	%AT1 2 onwind
	4	0.0	0.0	0.0	-0.0	1.0	100.0	1	13.752159844672928	0.0	3.5	87	87	87	26.0	5;	%AT1 2 ror
	4	0.0	0.0	0.0	-0.0	1.0	100.0	1	0.0	0.0	0.0	32	32	31400	28.0	6;	%AT1 2 solar
	5	0.0	0.0	0.0	-0.0	1.0	100.0	1	224.0	78.4	5.0	0	0	1100	224.0	0;	%BA1 0 CCGT
	5	0.0	0.0	0.0	-0.0	1.0	100.0	1	224.0	78.4	2.8	0	0	1100	224.0	1;	%BA1 0 OCGT
	5	0.0	0.0	0.0	-0.0	1.0	100.0	1	209.5	110.0	3.0	4	4	4	275.0	7;	%BA1 0 lignite
	5	0.0	0.0	0.0	-0.0	1.0	100.0	1	0.29782603979846956	0.0	0.0	3	3	6100	38.0	4;	%BA1 0 onwind
	5	0.0	0.0	0.0	-0.0	1.0	100.0	1	0.0	0.0	0.0	2	2	8200	28.0	6;	%BA1 0 solar
	6	0.0	0.0	0.0	-0.0	1.0	100.0	1	219.53809523809525	78.4	5.0	21	21	13800	224.0	0;	%BE1 0 CCGT
	6	0.0	0.0	0.0	-0.0	1.0	100.0	1	224.0	78.4	2.8	0	0	13800	224.0	1;	%BE1 0 OCGT
	6	0.0	0.0	0.0	-0.0	1.0	100.0	1	9.925925925925926	2.0436	2.8	27	27	27	10.0	8;	%BE1 0 biomass
	6	0.0	0.0	0.0	-0.0	1.0	100.0	1	7.917989445707185	0.0	0.0	137	137	180700	17.0	2;	%BE1 0 offwind
	6	0.0	0.0	0.0	-0.0	1.0	100.0	1	5.252944716442428	0.0	0.0	65	65	80900	38.0	4;	%BE1 0 onwind
	6	0.0	0.0	0.0	-0.0	1.0	100.0	1	2.5105720141986247	0.0	3.5	4	4	4	26.0	5;	%BE1 0 ror
	6	0.0	0.0	0.0	-0.0	1.0	100.0	1	0.0	0.0	0.0	202	202	109700	28.0	6;	%BE1 0 solar
	7	0.0	0.0	0.0	-0.0	1.0	100.0	1	224.0	78.4	5.0	0	0	5000	224.0	0;	%BG1 0 CCGT
	7	0.0	0.0	0.0	-0.0	1.0	100.0	1	224.0	78.4	2.8	0	0	5000	224.0	1;	%BG1 0 OCGT
	7	0.0	0.0	0.0	-0.0	1.0	100.0	1	160.41703044199232	89.375	3.0	1	1	1	275.0	9;	%BG1 0 coal
	7	0.0	0.0	0.0	-0.0	1.0	100.0	1	242.52278758367152	110.0	3.0	6	6	6	275.0	7;	%BG1 0 lignite
	7	0.0	0.0	0.0	-0.0	1.0	100.0	1	693.3333333333334	500.0	5.5	3	3	3	1000.0	10;	%BG1 0 nuclear
	7	0.0	0.0	0.0	-0.0	1.0	100.0	1	2.4838326089251717	0.0	0.0	0	0	65700	17.0	2;	%BG1 0 offwind
	7	0.0	0.0	0.0	-0.0	1.0	100.0	1	2.517994671014562	0.0	0.0	19	19	29400	38.0	4;	%BG1 0 onwind
	7	0.0	0.0	0.0	-0.0	1.0	100.0	1	0.9553734571783854	0.0	3.5	5	5	5	26.0	5;	%BG1 0 ror
	7	0.0	0.0	0.0	-0.0	1.0	100.0	1	0.0	0.0	0.0	39	39	39900	28.0	6;	%BG1 0 solar
	8	0.0	0.0	0.0	-0.0	1.0	100.0	1	224.0	78.4	5.0	0	0	5400	224.0	0;	%CH1 0 CCGT
	8	0.0	0.0	0.0	-0.0	1.0	100.0	1	224.0	78.4	2.8	0	0	5400	224.0	1;	%CH1 0 OCGT
	8	0.0	0.0	0.0	-0.0	1.0	100.0	1	9.709871428571429	2.0436	2.8	21	21	21	10.0	8;	%CH1 0 biomass
	8	0.0	0.0	0.0	-0.0	1.0	100.0	1	990.0	500.0	5.5	3	3	3	1000.0	10;	%CH1 0 nuclear
	8	0.0	0.0	0.0	-0.0	1.0	100.0	1	0.3910594215056022	0.0	0.0	1	1	31600	38.0	4;	%CH1 0 onwind
	8	0.0	0.0	0.0	-0.0	1.0	100.0	1	6.683580308807525	0.0	3.5	70	70	70	26.0	5;	%CH1 0 ror
	8	0.0	0.0	0.0	-0.0	1.0	100.0	1	0.0	0.0	0.0	35	35	42900	28.0	6;	%CH1 0 solar
	9	0.0	0.0	0.0	-0.0	1.0	100.0	1	224.0	78.4	5.0	0	0	1700	224.0	0;	%CH1 1 CCGT
	9	0.0	0.0	0.0	-0.0	1.0	100.0	1	224.0	78.4	2.8	0	0	1700	224.0	1;	%CH1 1 OCGT
	9	0.0	0.0	0.0	-0.0	1.0	100.0	1	9.254057142857144	2.0436	2.8	7	7	7	10.0	8;	%CH1 1 biomass
	9	0.0	0.0	0.0	-0.0	1.0	100.0	1	0.25072761324086823	0.0	0.0	1	1	9900	38.0	4;	%CH1 1 onwind
	9	0.0	0.0	0.0	-0.0	1.0	100.0	1	6.65312703422242	0.0	3.5	38	38	38	26.0	5;	%CH1 1 ror
	9	0.0	0.0	0.0	-0.0	1.0	100.0	1	0.0	0.0	0.0	29	29	13500	28.0	6;	%CH1 1 solar
	10	0.0	0.0	0.0	-0.0	1.0	100.0	1	224.0	78.4	5.0	0	0	2600	224.0	0;	%CH1 2 CCGT
	10	0.0	0.0	0.0	-0.0	1.0	100.0	1	224.0	78.4	2.8	0	0	2600	224.0	1;	%CH1 2 OCGT
	10	0.0	0.0	0.0	-0.0	1.0	100.0	1	9.515785714285714	2.0436	2.8	7	7	7	10.0	8;	%CH1 2 biomass
	10	0.0	0.0	0.0	-0.0	1.0	100.0	1	0.0	0.0	0.0	1	1	15400	38.0	4;	%CH1 2 onwind
	10	0.0	0.0	0.0	-0.0	1.0	100.0	1	5.997822288448679	0.0	3.5	64	64	64	26.0	5;	%CH1 2 ror
	10	0.0	0.0	0.0	-0.0	1.0	100.0	1	0.0	0.0	0.0	42	42	20800	28.0	6;	%CH1 2 solar
	11	0.0	0.0	0.0	-0.0	1.0	100.0	1	78.4	78.4	5.0	1	1	1000	224.0	0;	%CZ1 0 CCGT
	11	0.0	0.0	0.0	-0.0	1.0	100.0	1	224.0	78.4	2.8	0	0	1000	224.0	1;	%CZ1 0 OCGT
	11	0.0	0.0	0.0	-0.0	1.0	100.0	1	0.0	0.0	0.0	2	2	5500	38.0	4;	%CZ1 0 onwind
	11	0.0	0.0	0.0	-0.0	1.0	100.0	1	0.0	0.0	0.0	12	12	7500	28.0	6;	%CZ1 0 solar
	12	0.0	0.0	0.0	-0.0	1.0	100.0	1	185.6	78.4	5.0	5	5	6200	224.0	0;	%CZ1 1 CCGT
	12	0.0	0.0	0.0	-0.0	1.0	100.0	1	224.0	78.4	2.8	0	0	6200	224.0	1;	%CZ1 1 OCGT
	12	0.0	0.0	0.0	-0.0	1.0	100.0	1	262.44100892134185	110.0	3.0	10	10	10	275.0	7;	%CZ1 1 lignite
	12	0.0	0.0	0.0	-0.0	1.0	100.0	1	750.0	500.0	5.5	3	3	3	1000.0	10;	%CZ1 1 nuclear
	12	0.0	0.0	0.0	-0.0	1.0	100.0	1	0.1544755430781472	0.0	0.0	5	5	36500	38.0	4;	%CZ1 1 onwind
	12	0.0	0.0	0.0	-0.0	1.0	100.0	1	5.527184914299804	0.0	3.5	2	2	2	26.0	5;	%CZ1 1 ror
	12	0.0	0.0	0.0	-0.0	1.0	100.0	1	0.0	0.0	0.0	33	33	49500	28.0	6;	%CZ1 1 solar
	13	0.0	0.0	0.0	-0.0	1.0	100.0	1	224.0	78.4	5.0	0	0	3600	224.0	0;	%CZ1 2 CCGT
	13	0.0	0.0	0.0	-0.0	1.0	100.0	1	224.0	78.4	2.8	0	0	3600	224.0	1;	%CZ1 2 OCGT
	13	0.0	0.0	0.0	-0.0	1.0	100.0	1	251.74418635111147	110.0	3.0	4	4	4	275.0	7;	%CZ1 2 lignite
	13	0.0	0.0	0.0	-0.0	1.0	100.0	1	680.0	500.0	5.5	3	3	3	1000.0	10;	%CZ1 2 nuclear
	13	0.0	0.0	0.0	-0.0	1.0	100.0	1	0.22621520516880714	0.0	0.0	4	4	21200	38.0	4;	%CZ1 2 onwind
	13	0.0	0.0	0.0	-0.0	1.0	100.0	1	0.0	0.0	0.0	30	30	28700	28.0	6;	%CZ1 2 solar
	14	0.0	0.0	0.0	-0.0	1.0	100.0	1	222.60958333333335	78.4	5.0	12	12	5200	224.0	0;	%DE1 0 CCGT
	14	0.0	0.0	0.0	-0.0	1.0	100.0	1	224.0	78.4	2.8	0	0	5200	224.0	1;	%DE1 0 OCGT
	14	0.0	0.0	0.0	-0.0	1.0	100.0	1	9.650607083333334	2.0436	2.8	24	24	24	10.0	8;	%DE1 0 biomass
	14	0.0	0.0	0.0	-0.0	1.0	100.0	1	188.07513913888755	89.375	3.0	1	1	1	275.0	9;	%DE1 0 coal
	14	0.0	0.0	0.0	-0.0	1.0	100.0	1	0.5	0.0	2.8	1	1	1	50.0	3;	%DE1 0 oil
	14	0.0	0.0	0.0	-0.0	1.0	100.0	1	1.8059304693834335	0.0	0.0	27	27	30300	38.0	4;	%DE1 0 onwind
	14	0.0	0.0	0.0	-0.0	1.0	100.0	1	0.6760851276143344	0.0	3.5	1	1	1	26.0	5;	%DE1 0 ror
	14	0.0	0.0	0.0	-0.0	1.0	100.0	1	0.0	0.0	0.0	59	59	41100	28.0	6;	%DE1 0 solar
	15	0.0	0.0	0.0	-0.0	1.0	100.0	1	205.375	78.4	5.0	4	4	6100	224.0	0;	%DE1 1 CCGT
	15	0.0	0.0	0.0	-0.0	1.0	100.0	1	224.0	78.4	2.8	0	0	6100	224.0	1;	%DE1 1 OCGT
	15	0.0	0.0	0.0	-0.0	1.0	100.0	1	9.976152727272728	2.0436	2.8	22	22	22	10.0	8;	%DE1 1 biomass
	15	0.0	0.0	0.0	-0.0	1.0	100.0	1	230.99926980227949	110.0	3.0	4	4	4	275.0	7;	%DE1 1 lignite
	15	0.0	0.0	0.0	-0.0	1.0	100.0	1	42.5	0.0	2.8	5	5	5	50.0	3;	%DE1 1 oil
	15	0.0	0.0	0.0	-0.0	1.0	100.0	1	1.3837044471509916	0.0	0.0	57	57	35600	38.0	4;	%DE1 1 onwind
	15	0.0	0.0	0.0	-0.0	1.0	100.0	1	9.625453256952763	0.0	3.5	1	1	1	26.0	5;	%DE1 1 ror
	15	0.0	0.0	0.0	-0.0	1.0	100.0	1	0.0	0.0	0.0	86	86	48400	28.0	6;	%DE1 1 solar
	16	0.0	0.0	0.0	-0.0	1.0	100.0	1	208.4628571428571	78.4	5.0	7	7	4400	224.0	0;	%DE1 10 CCGT
	16	0.0	0.0	0.0	-0.0	1.0	100.0	1	224.0	78.4	2.8	0	0	4400	224.0	1;	%DE1 10 OCGT
	16	0.0	0.0	0.0	-0.0	1.0	100.0	1	9.750305217391302	2.0436	2.8	23	23	23	10.0	8;	%DE1 10 biomass
	16	0.0	0.0	0.0	-0.0	1.0	100.0	1	251.99610146060095	89.375	3.0	3	3	3	275.0	9;	%DE1 10 coal
	16	0.0	0.0	0.0	-0.0	1.0	100.0	1	4.744421226947684	0.0	0.0	32	32	25800	38.0	4;	%DE1 10 onwind
	16	0.0	0.0	0.0	-0.0	1.0	100.0	1	10.815638800212664	0.0	3.5	1	1	1	26.0	5;	%DE1 10 ror
	16	0.0	0.0	0.0	-0.0	1.0	100.0	1	0.0	0.0	0.0	44	44	35000	28.0	6;	%DE1 10 solar
	17	0.0	0.0	0.0	-0.0	1.0	100.0	1	203.95499999999998	78.4	5.0	2	2	5900	224.0	0;	%DE1 11 CCGT
	17	0.0	0.0	0.0	-0.0	1.0	100.0	1	224.0	78.4	2.8	0	0	5900	224.0	1;	%DE1 11 OCGT
	17	0.0	0.0	0.0	-0.0	1.0	100.0	1	9.855548571428573	2.0436	2.8	35	35	35	10.0	8;	%DE1 11 biomass
	17	0.0	0.0	0.0	-0.0	1.0	100.0	1	174.24608479043997	89.375	3.0	2	2	2	275.0	9;	%DE1 11 coal
	17	0.0	0.0	0.0	-0.0	1.0	100.0	1	1.533862178130203	0.0	0.0	72	72	34500	38.0	4;	%DE1 11 onwind
	17	0.0	0.0	0.0	-0.0	1.0	100.0	1	13.166542455087077	0.0	3.5	2	2	2	26.0	5;	%DE1 11 ror
	17	0.0	0.0	0.0	-0.0	1.0	100.0	1	0.0	0.0	0.0	96	96	46800	28.0	6;	%DE1 11 solar
	18	0.0	0.0	0.0	-0.0	1.0	100.0	1	224.0	78.4	5.0	0	0	1400	224.0	0;	%DE1 12 CCGT
	18	0.0	0.0	0.0	-0.0	1.0	100.0	1	224.0	78.4	2.8	0	0	1400	224.0	1;	%DE1 12 OCGT
	18	0.0	0.0	0.0	-0.0	1.0	100.0	1	8.88375	2.0436	2.8	5	5	5	10.0	8;	%DE1 12 biomass
	18	0.0	0.0	0.0	-0.0	1.0	100.0	1	4.034651450041469	0.0	0.0	25	25	8000	38.0	4;	%DE1 12 onwind
	18	0.0	0.0	0.0	-0.0	1.0	100.0	1	1.2349898252938138	0.0	3.5	1	1	1	26.0	5;	%DE1 12 ror
	18	0.0	0.0	0.0	-0.0	1.0	100.0	1	0.0	0.0	0.0	20	20	10900	28.0	6;	%DE1 12 solar
	19	0.0	0.0	0.0	-0.0	1.0	100.0	1	120.05499999999999	78.4	5.0	2	2	4300	224.0	0;	%DE1 13 CCGT
	19	0.0	0.0	0.0	-0.0	1.0	100.0	1	224.0	78.4	2.8	0	0	4300	224.0	1;	%DE1 13 OCGT
	19	0.0	0.0	0.0	-0.0	1.0	100.0	1	9.94927857142857	2.0436	2.8	14	14	14	10.0	8;	%DE1 13 biomass
	19	0.0	0.0	0.0	-0.0	1.0	100.0	1	272.95340351622343	110.0	3.0	7	7	7	275.0	7;	%DE1 13 lignite
	19	0.0	0.0	0.0	-0.0	1.0	100.0	1	17.0	0.0	2.8	1	1	1	50.0	3;	%DE1 13 oil
	19	0.0	0.0	0.0	-0.0	1.0	100.0	1	1.814247489586955	0.0	0.0	24	24	25300	38.0	4;	%DE1 13 onwind
	19	0.0	0.0	0.0	-0.0	1.0	100.0	1	11.673506771258616	0.0	3.5	3	3	3	26.0	5;	%DE1 13 ror
	19	0.0	0.0	0.0	-0.0	1.0	100.0	1	0.0	0.0	0.0	55	55	34300	28.0	6;	%DE1 13 solar
	20	0.0	0.0	0.0	-0.0	1.0	100.0	1	176.9	78.4	5.0	2	2	4200	224.0	0;	%DE1 14 CCGT
	20	0.0	0.0	0.0	-0.0	1.0	100.0	1	224.0	78.4	2.8	0	0	4200	224.0	1;	%DE1 14 OCGT
	20	0.0	0.0	0.0	-0.0	1.0	100.0	1	9.955108000000001	2.0436	2.8	25	25	25	10.0	8;	%DE1 14 biomass
	20	0.0	0.0	0.0	-0.0	1.0	100.0	1	110.0	110.0	3.0	1	1	1	275.0	7;	%DE1 14 lignite
	20	0.0	0.0	0.0	-0.0	1.0	100.0	1	0.8833633965822729	0.0	0.0	55	55	24500	38.0	4;	%DE1 14 onwind
	20	0.0	0.0	0.0	-0.0	1.0	100.0	1	5.296796686881779	0.0	3.5	1	1	1	26.0	5;	%DE1 14 ror
	20	0.0	0.0	0.0	-0.0	1.0	100.0	1	0.0	0.0	0.0	69	69	33200	28.0	6;	%DE1 14 solar
	21	0.0	0.0	0.0	-0.0	1.0	100.0	1	78.4	78.4	5.0	1	1	4500	224.0	0;	%DE1 15 CCGT
	21	0.0	0.0	0.0	-0.0	1.0	100.0	1	224.0	78.4	2.8	0	0	4500	224.0	1;	%DE1 15 OCGT
	21	0.0	0.0	0.0	-0.0	1.0	100.0	1	9.817449090909092	2.0436	2.8	44	44	44	10.0	8;	%DE1 15 biomass
	21	0.0	0.0	0.0	-0.0	1.0	100.0	1	35.4	0.0	2.8	1	1	1	50.0	3;	%DE1 15 oil
	21	0.0	0.0	0.0	-0.0	1.0	100.0	1	2.0931465670073313	0.0	0.0	44	44	26100	38.0	4;	%DE1 15 onwind
	21	0.0	0.0	0.0	-0.0	1.0	100.0	1	13.8041575190949	0.0	3.5	11	11	11	26.0	5;	%DE1 15 ror
	21	0.0	0.0	0.0	-0.0	1.0	100.0	1	0.0	0.0	0.0	91	91	35400	28.0	6;	%DE1 15 solar
	22	0.0	0.0	0.0	-0.0	1.0	100.0	1	189.1	78.4	5.0	1	1	6700	224.0	0;	%DE1 16 CCGT
	22	0.0	0.0	0.0	-0.0	1.0	100.0	1	224.0	78.4	2.8	0	0	6700	224.0	1;	%DE1 16 OCGT
	22	0.0	0.0	0.0	-0.0	1.0	100.0	1	9.885183720930234	2.0436	2.8	43	43	43	10.0	8;	%DE1 16 biomass
	22	0.0	0.0	0.0	-0.0	1.0	100.0	1	254.91556848971769	89.375	3.0	2	2	2	275.0	9;	%DE1 16 coal
	22	0.0	0.0	0.0	-0.0	1.0	100.0	1	1.0392433977517446	0.0	0.0	14	14	87900	17.0	2;	%DE1 16 offwind
	22	0.0	0.0	0.0	-0.0	1.0	100.0	1	1.4060323659853218	0.0	0.0	94	94	39400	38.0	4;	%DE1 16 onwind
	22	0.0	0.0	0.0	-0.0	1.0	100.0	1	0.27284658930909844	0.0	3.5	1	1	1	26.0	5;	%DE1 16 ror
	22	0.0	0.0	0.0	-0.0	1.0	100.0	1	0.0	0.0	0.0	92	92	53400	28.0	6;	%DE1 16 solar
	23	0.0	0.0	0.0	-0.0	1.0	100.0	1	212.84425000000002	78.4	5.0	2	2	5300	224.0	0;	%DE1 17 CCGT
	23	0.0	0.0	0.0	-0.0	1.0	100.0	1	78.4	78.4	2.8	1	1	5300	224.0	1;	%DE1 17 OCGT
	23	0.0	0.0	0.0	-0.0	1.0	100.0	1	9.994524625	2.0436	2.8	32	32	32	10.0	8;	%DE1 17 biomass
	23	0.0	0.0	0.0	-0.0	1.0	100.0	1	253.00584193683684	89.375	3.0	7	7	7	275.0	9;	%DE1 17 coal
	23	0.0	0.0	0.0	-0.0	1.0	100.0	1	2.1548419513412895	0.0	0.0	33	33	31000	38.0	4;	%DE1 17 onwind
	23	0.0	0.0	0.0	-0.0	1.0	100.0	1	8.539828270854835	0.0	3.5	1	1	1	26.0	5;	%DE1 17 ror
	23	0.0	0.0	0.0	-0.0	1.0	100.0	1	0.0	0.0	0.0	76	76	42000	28.0	6;	%DE1 17 solar
	24	0.0	0.0	0.0	-0.0	1.0	100.0	1	197.88333333333333	78.4	5.0	6	6	2400	224.0	0;	%DE1 18 CCGT
	24	0.0	0.0	0.0	-0.0	1.0	100.0	1	224.0	78.4	2.8	0	0	2400	224.0	1;	%DE1 18 OCGT
	24	0.0	0.0	0.0	-0.0	1.0	100.0	1	9.57325	2.0436	2.8	4	4	4	10.0	8;	%DE1 18 biomass
	24	0.0	0.0	0.0	-0.0	1.0	100.0	1	1.8494350975741485	0.0	0.0	19	19	13700	38.0	4;	%DE1 18 onwind
	24	0.0	0.0	0.0	-0.0	1.0	100.0	1	1.3636585326732626	0.0	3.5	1	1	1	26.0	5;	%DE1 18 ror
	24	0.0	0.0	0.0	-0.0	1.0	100.0	1	0.0	0.0	0.0	24	24	18600	28.0	6;	%DE1 18 solar
	25	0.0	0.0	0.0	-0.0	1.0	100.0	1	122.0	78.4	5.0	1	1	2900	224.0	0;	%DE1 19 CCGT
	25	0.0	0.0	0.0	-0.0	1.0	100.0	1	224.0	78.4	2.8	0	0	2900	224.0	1;	%DE1 19 OCGT
	25	0.0	0.0	0.0	-0.0	1.0	100.0	1	9.469855384615386	2.0436	2.8	13	13	13	10.0	8;	%DE1 19 biomass
	25	0.0	0.0	0.0	-0.0	1.0	100.0	1	89.375	89.375	3.0	1	1	1	275.0	9;	%DE1 19 coal
	25	0.0	0.0	0.0	-0.0	1.0	100.0	1	24.8	0.0	2.8	1	1	1	50.0	3;	%DE1 19 oil
	25	0.0	0.0	0.0	-0.0	1.0	100.0	1	1.5145050384126841	0.0	0.0	37	37	17000	38.0	4;	%DE1 19 onwind
	25	0.0	0.0	0.0	-0.0	1.0	100.0	1	12.667740595571894	0.0	3.5	3	3	3	26.0	5;	%DE1 19 ror
	25	0.0	0.0	0.0	-0.0	1.0	100.0	1	0.0	0.0	0.0	53	53	23100	28.0	6;	%DE1 19 solar
	26	0.0	0.0	0.0	-0.0	1.0	100.0	1	217.40824999999998	78.4	5.0	24	24	18400	224.0	0;	%DE1 2 CCGT
	26	0.0	0.0	0.0	-0.0	1.0	100.0	1	78.4	78.4	2.8	1	1	18400	224.0	1;	%DE1 2 OCGT
	26	0.0	0.0	0.0	-0.0	1.0	100.0	1	9.83382409090909	2.0436	2.8	22	22	22	10.0	8;	%DE1 2 biomass
	26	0.0	0.0	0.0	-0.0	1.0	100.0	1	269.05434856878185	110.0	3.0	42	42	42	275.0	7;	%DE1 2 lignite
	26	0.0	0.0	0.0	-0.0	1.0	100.0	1	40.474999999999994	0.0	2.8	4	4	4	50.0	3;	%DE1 2 oil
	26	0.0	0.0	0.0	-0.0	1.0	100.0	1	5.053488977345489	0.0	0.0	35	35	108100	38.0	4;	%DE1 2 onwind
	26	0.0	0.0	0.0	-0.0	1.0	100.0	1	9.504826343784531	0.0	3.5	1	1	1	26.0	5;	%DE1 2 ror
	26	0.0	0.0	0.0	-0.0	1.0	100.0	1	0.0	0.0	0.0	82	82	146700	28.0	6;	%DE1 2 solar
	27	0.0	0.0	0.0	-0.0	1.0	100.0	1	211.56666666666666	78.4	5.0	9	9	11100	224.0	0;	%DE1 20 CCGT
	27	0.0	0.0	0.0	-0.0	1.0	100.0	1	224.0	78.4	2.8	0	0	11100	224.0	1;	%DE1 20 OCGT
	27	0.0	0.0	0.0	-0.0	1.0	100.0	1	9.826045714285716	2.0436	2.8	35	35	35	10.0	8;	%DE1 20 biomass
	27	0.0	0.0	0.0	-0.0	1.0	100.0	1	10.9761720636622	0.0	0.0	370	370	145900	17.0	2;	%DE1 20 offwind
	27	0.0	0.0	0.0	-0.0	1.0	100.0	1	3.637141755707063	0.0	0.0	60	60	65300	38.0	4;	%DE1 20 onwind
	27	0.0	0.0	0.0	-0.0	1.0	100.0	1	0.0	0.0	0.0	58	58	88600	28.0	6;	%DE1 20 solar
	28	0.0	0.0	0.0	-0.0	1.0	100.0	1	85.3	78.4	5.0	1	1	4600	224.0	0;	%DE1 21 CCGT
	28	0.0	0.0	0.0	-0.0	1.0	100.0	1	224.0	78.4	2.8	0	0	4600	224.0	1;	%DE1 21 OCGT
	28	0.0	0.0	0.0	-0.0	1.0	100.0	1	9.829895454545454	2.0436	2.8	44	44	44	10.0	8;	%DE1 21 biomass
	28	0.0	0.0	0.0	-0.0	1.0	100.0	1	3.246905705071898	0.0	0.0	62	62	26900	38.0	4;	%DE1 21 onwind
	28	0.0	0.0	0.0	-0.0	1.0	100.0	1	0.2240214101695755	0.0	3.5	1	1	1	26.0	5;	%DE1 21 ror
	28	0.0	0.0	0.0	-0.0	1.0	100.0	1	0.0	0.0	0.0	81	81	36500	28.0	6;	%DE1 21 solar
	29	0.0	0.0	0.0	-0.0	1.0	100.0	1	180.10000000000002	78.4	5.0	2	2	4600	224.0	0;	%DE1 22 CCGT
	29	0.0	0.0	0.0	-0.0	1.0	100.0	1	224.0	78.4	2.8	0	0	4600	224.0	1;	%DE1 22 OCGT
	29	0.0	0.0	0.0	-0.0	1.0	100.0	1	9.797805	2.0436	2.8	32	32	32	10.0	8;	%DE1 22 biomass
	29	0.0	0.0	0.0	-0.0	1.0	100.0	1	0.3249342266474658	0.0	0.0	41	41	26900	38.0	4;	%DE1 22 onwind
	29	0.0	0.0	0.0	-0.0	1.0	100.0	1	14.318513810010824	0.0	3.5	22	22	22	26.0	5;	%DE1 22 ror
	29	0.0	0.0	0.0	-0.0	1.0	100.0	1	0.0	0.0	0.0	84	84	36500	28.0	6;	%DE1 22 solar
	30	0.0	0.0	0.0	-0.0	1.0	100.0	1	164.84	78.4	5.0	3	3	10700	224.0	0;	%DE1 23 CCGT
	30	0.0	0.0	0.0	-0.0	1.0	100.0	1	224.0	78.4	2.8	0	0	10700	224.0	1;	%DE1 23 OCGT
	30	0.0	0.0	0.0	-0.0	1.0	100.0	1	9.934234782608694	2.0436	2.8	23	23	23	10.0	8;	%DE1 23 biomass
	30	0.0	0.0	0.0	-0.0	1.0	100.0	1	272.6583187556654	110.0	3.0	25	25	25	275.0	7;	%DE1 23 lignite
	30	0.0	0.0	0.0	-0.0	1.0	100.0	1	1.1727501224849521	0.0	0.0	61	61	62900	38.0	4;	%DE1 23 onwind
	30	0.0	0.0	0.0	-0.0	1.0	100.0	1	11.36133197883086	0.0	3.5	2	2	2	26.0	5;	%DE1 23 ror
	30	0.0	0.0	0.0	-0.0	1.0	100.0	1	0.0	0.0	0.0	74	74	85300	28.0	6;	%DE1 23 solar
	31	0.0	0.0	0.0	-0.0	1.0	100.0	1	208.6777777777778	78.4	5.0	9	9	3600	224.0	0;	%DE1 24 CCGT
...
];

%% generator cost data
%	2	startup	shutdown	n	c(n-1)	...	c0	investment
mpc.gencost = [
	2	236084.02758620694	94433.61103448279	3	0.0	1204.5103448275866	0.0	0.0	78498.69317484596;	%AL1 0 CCGT
	2	325214.1951219512	130085.67804878051	3	0.0	1659.2560975609758	0.0	0.0	35746.888799202134;	%AL1 0 OCGT
	2	0.0	0.0	3	0.0	0.46499999999999997	0.0	0.0	11126.651167779757;	%AL1 0 offwind
	2	0.0	0.0	3	0.0	4614.571428571428	0.0	0.0	6700.884872187999;	%AL1 0 oil
	2	0.0	0.0	3	0.0	0.46499999999999997	0.0	0.0	12921.138822776289;	%AL1 0 onwind
	2	0.0	0.0	3	0.0	0.0	0.0	0.0	27523.632567689387;	%AL1 0 ror
	2	0.0	0.0	3	0.0	0.30999999999999994	0.0	0.0	3527.693817308477;	%AL1 0 solar
	2	236084.02758620694	94433.61103448279	3	0.0	1204.5103448275866	0.0	0.0	78498.69317484596;	%AT1 0 CCGT
	2	325214.1951219512	130085.67804878051	3	0.0	1659.2560975609758	0.0	0.0	35746.888799202134;	%AT1 0 OCGT
	2	0.0	0.0	3	0.0	0.4649999999999999	0.0	0.0	12921.138822776289;	%AT1 0 onwind
	2	0.0	0.0	3	0.0	0.0	0.0	0.0	27523.632567689387;	%AT1 0 ror
	2	0.0	0.0	3	0.0	0.31	0.0	0.0	3527.693817308477;	%AT1 0 solar
	2	235144.9012410086	94057.96049640344	3	0.0	1199.718883882697	0.0	0.0	78498.69317484595;	%AT1 1 CCGT
	2	325214.1951219512	130085.67804878051	3	0.0	1659.2560975609758	0.0	0.0	35746.888799202134;	%AT1 1 OCGT
	2	0.0	0.0	3	0.0	0.46499999999999997	0.0	0.0	12921.138822776289;	%AT1 1 onwind
	2	0.0	0.0	3	0.0	0.0	0.0	0.0	27523.632567689387;	%AT1 1 ror
	2	0.0	0.0	3	0.0	0.31	0.0	0.0	3527.6938173084773;	%AT1 1 solar
	2	233463.2121774924	93385.28487099695	3	0.0	1191.1388376402672	0.0	0.0	78498.69317484596;	%AT1 2 CCGT
	2	325214.1951219512	130085.67804878051	3	0.0	1659.2560975609758	0.0	0.0	35746.888799202134;	%AT1 2 OCGT
	2	0.0	0.0	3	0.0	0.465	0.0	0.0	12921.13882277629;	%AT1 2 onwind
	2	0.0	0.0	3	0.0	0.0	0.0	0.0	27523.632567689387;	%AT1 2 ror
	2	0.0	0.0	3	0.0	0.31	0.0	0.0	3527.6938173084773;	%AT1 2 solar
	2	236084.02758620694	94433.61103448279	3	0.0	1204.5103448275866	0.0	0.0	78498.69317484596;	%BA1 0 CCGT
	2	325214.1951219512	130085.67804878051	3	0.0	1659.2560975609758	0.0	0.0	35746.888799202134;	%BA1 0 OCGT
	2	104754.16666666664	41901.666666666664	3	0.0	380.9242424242424	0.0	0.0	340587.9132071384;	%BA1 0 lignite
	2	0.0	0.0	3	0.0	0.46499999999999997	0.0	0.0	12921.138822776289;	%BA1 0 onwind
	2	0.0	0.0	3	0.0	0.31000000000000005	0.0	0.0	3527.6938173084777;	%BA1 0 solar
	2	279113.4872790206	111645.39491160824	3	0.0	1424.048404484799	0.0	0.0	78498.69317484596;	%BE1 0 CCGT
	2	325214.1951219513	130085.67804878054	3	0.0	1659.256097560976	0.0	0.0	35746.888799202134;	%BE1 0 OCGT
	2	2358.836170212766	943.5344680851065	3	0.0	461.7021276595745	0.0	0.0	9840.839070818929;	%BE1 0 biomass
	2	0.0	0.0	3	0.0	0.465	0.0	0.0	11539.308217891792;	%BE1 0 offwind
	2	0.0	0.0	3	0.0	0.465	0.0	0.0	12921.138822776289;	%BE1 0 onwind
	2	0.0	0.0	3	0.0	0.0	0.0	0.0	27523.632567689387;	%BE1 0 ror
	2	0.0	0.0	3	0.0	0.31000000000000005	0.0	0.0	3527.6938173084773;	%BE1 0 solar
	2	236084.02758620694	94433.61103448279	3	0.0	1204.5103448275866	0.0	0.0	78498.69317484595;	%BG1 0 CCGT
	2	325214.1951219512	130085.67804878051	3	0.0	1659.2560975609756	0.0	0.0	35746.888799202134;	%BG1 0 OCGT
	2	195308.07291666666	78123.22916666666	3	0.0	874.1060606060605	0.0	0.0	340587.9132071384;	%BG1 0 coal
	2	104754.16666666663	41901.66666666666	3	0.0	380.9242424242423	0.0	0.0	340587.91320713836;	%BG1 0 lignite
	2	440928.0303030303	176371.2121212121	3	0.0	352.74242424242425	0.0	0.0	2501135.9725842155;	%BG1 0 nuclear
	2	0.0	0.0	3	0.0	0.46499999999999997	0.0	0.0	11722.080628180274;	%BG1 0 offwind
	2	0.0	0.0	3	0.0	0.4649999999999999	0.0	0.0	12921.138822776289;	%BG1 0 onwind
	2	0.0	0.0	3	0.0	0.0	0.0	0.0	27523.632567689387;	%BG1 0 ror
	2	0.0	0.0	3	0.0	0.30999999999999994	0.0	0.0	3527.6938173084773;	%BG1 0 solar
	2	236084.02758620694	94433.61103448279	3	0.0	1204.5103448275866	0.0	0.0	78498.69317484596;	%CH1 0 CCGT
	2	325214.1951219512	130085.67804878051	3	0.0	1659.2560975609758	0.0	0.0	35746.888799202134;	%CH1 0 OCGT
	2	2358.836170212766	943.5344680851064	3	0.0	461.70212765957444	0.0	0.0	9840.839070818929;	%CH1 0 biomass
	2	440928.0303030303	176371.2121212121	3	0.0	352.74242424242425	0.0	0.0	2501135.9725842155;	%CH1 0 nuclear
	2	0.0	0.0	3	0.0	0.46499999999999997	0.0	0.0	12921.138822776289;	%CH1 0 onwind
	2	0.0	0.0	3	0.0	0.0	0.0	0.0	27523.632567689394;	%CH1 0 ror
	2	0.0	0.0	3	0.0	0.30999999999999994	0.0	0.0	3527.693817308477;	%CH1 0 solar
	2	236084.02758620694	94433.61103448279	3	0.0	1204.5103448275866	0.0	0.0	78498.69317484596;	%CH1 1 CCGT
	2	325214.1951219512	130085.67804878051	3	0.0	1659.2560975609758	0.0	0.0	35746.888799202134;	%CH1 1 OCGT
	2	2358.836170212766	943.5344680851065	3	0.0	461.7021276595745	0.0	0.0	9840.839070818929;	%CH1 1 biomass
	2	0.0	0.0	3	0.0	0.46499999999999997	0.0	0.0	12921.138822776289;	%CH1 1 onwind
	2	0.0	0.0	3	0.0	0.0	0.0	0.0	27523.632567689394;	%CH1 1 ror
	2	0.0	0.0	3	0.0	0.31	0.0	0.0	3527.6938173084777;	%CH1 1 solar
	2	236084.02758620694	94433.61103448279	3	0.0	1204.5103448275866	0.0	0.0	78498.69317484596;	%CH1 2 CCGT
	2	325214.1951219512	130085.67804878051	3	0.0	1659.2560975609758	0.0	0.0	35746.888799202134;	%CH1 2 OCGT
	2	2358.836170212766	943.5344680851064	3	0.0	461.70212765957444	0.0	0.0	9840.839070818929;	%CH1 2 biomass
	2	0.0	0.0	3	0.0	0.4649999999999999	0.0	0.0	12921.138822776289;	%CH1 2 onwind
	2	0.0	0.0	3	0.0	0.0	0.0	0.0	27523.632567689387;	%CH1 2 ror
	2	0.0	0.0	3	0.0	0.31	0.0	0.0	3527.6938173084773;	%CH1 2 solar
	2	236084.02758620694	94433.61103448279	3	0.0	1204.5103448275866	0.0	0.0	78498.69317484596;	%CZ1 0 CCGT
	2	325214.1951219512	130085.67804878051	3	0.0	1659.2560975609756	0.0	0.0	35746.888799202134;	%CZ1 0 OCGT
	2	0.0	0.0	3	0.0	0.46499999999999997	0.0	0.0	12921.138822776289;	%CZ1 0 onwind
	2	0.0	0.0	3	0.0	0.31000000000000005	0.0	0.0	3527.6938173084777;	%CZ1 0 solar
	2	236084.02758620694	94433.61103448279	3	0.0	1204.5103448275866	0.0	0.0	78498.69317484596;	%CZ1 1 CCGT
	2	325214.1951219512	130085.67804878051	3	0.0	1659.2560975609758	0.0	0.0	35746.888799202134;	%CZ1 1 OCGT
	2	104754.16666666664	41901.666666666664	3	0.0	380.9242424242424	0.0	0.0	340587.9132071384;	%CZ1 1 lignite
	2	440928.0303030303	176371.2121212121	3	0.0	352.74242424242425	0.0	0.0	2501135.9725842155;	%CZ1 1 nuclear
	2	0.0	0.0	3	0.0	0.46499999999999997	0.0	0.0	12921.138822776289;	%CZ1 1 onwind
	2	0.0	0.0	3	0.0	0.0	0.0	0.0	27523.632567689387;	%CZ1 1 ror
	2	0.0	0.0	3	0.0	0.31	0.0	0.0	3527.6938173084773;	%CZ1 1 solar
	2	236084.02758620694	94433.61103448279	3	0.0	1204.5103448275866	0.0	0.0	78498.69317484595;	%CZ1 2 CCGT
	2	325214.1951219512	130085.67804878051	3	0.0	1659.2560975609756	0.0	0.0	35746.88879920213;	%CZ1 2 OCGT
	2	104754.16666666664	41901.666666666664	3	0.0	380.9242424242424	0.0	0.0	340587.9132071384;	%CZ1 2 lignite
	2	440928.0303030303	176371.2121212121	3	0.0	352.74242424242425	0.0	0.0	2501135.9725842155;	%CZ1 2 nuclear
	2	0.0	0.0	3	0.0	0.46499999999999997	0.0	0.0	12921.138822776289;	%CZ1 2 onwind
	2	0.0	0.0	3	0.0	0.31	0.0	0.0	3527.6938173084773;	%CZ1 2 solar
	2	272248.18014437746	108899.27205775099	3	0.0	1389.021327267232	0.0	0.0	78498.69317484595;	%DE1 0 CCGT
	2	325214.1951219512	130085.67804878051	3	0.0	1659.2560975609756	0.0	0.0	35746.888799202134;	%DE1 0 OCGT
	2	2358.836170212766	943.5344680851065	3	0.0	461.7021276595745	0.0	0.0	9840.839070818929;	%DE1 0 biomass
	2	195308.07291666666	78123.22916666666	3	0.0	874.1060606060605	0.0	0.0	340587.9132071385;	%DE1 0 coal
	2	0.0	0.0	3	0.0	4318.231404958678	0.0	0.0	6700.884872187999;	%DE1 0 oil
	2	0.0	0.0	3	0.0	0.465	0.0	0.0	12921.13882277629;	%DE1 0 onwind
	2	0.0	0.0	3	0.0	0.0	0.0	0.0	27523.632567689387;	%DE1 0 ror
	2	0.0	0.0	3	0.0	0.30999999999999994	0.0	0.0	3527.693817308477;	%DE1 0 solar
	2	279431.87562632555	111772.75025053023	3	0.0	1425.6728348281915	0.0	0.0	78498.69317484596;	%DE1 1 CCGT
	2	325214.1951219512	130085.67804878051	3	0.0	1659.2560975609758	0.0	0.0	35746.888799202134;	%DE1 1 OCGT
	2	2358.836170212766	943.5344680851064	3	0.0	461.70212765957444	0.0	0.0	9840.839070818929;	%DE1 1 biomass
	2	93024.96329002667	37209.98531601067	3	0.0	338.2725937819152	0.0	0.0	340587.9132071385;	%DE1 1 lignite
	2	0.0	0.0	3	0.0	4363.556388549989	0.0	0.0	6700.884872187999;	%DE1 1 oil
	2	0.0	0.0	3	0.0	0.4649999999999999	0.0	0.0	12921.138822776289;	%DE1 1 onwind
	2	0.0	0.0	3	0.0	0.0	0.0	0.0	27523.632567689383;	%DE1 1 ror
	2	0.0	0.0	3	0.0	0.31000000000000005	0.0	0.0	3527.6938173084777;	%DE1 1 solar
	2	244006.36116248116	97602.54446499246	3	0.0	1244.9304140942913	0.0	0.0	78498.69317484596;	%DE1 10 CCGT
	2	325214.1951219512	130085.67804878051	3	0.0	1659.2560975609758	0.0	0.0	35746.888799202134;	%DE1 10 OCGT
	2	2358.836170212767	943.5344680851067	3	0.0	461.7021276595746	0.0	0.0	9840.83907081893;	%DE1 10 biomass
	2	195308.07291666666	78123.22916666666	3	0.0	874.1060606060605	0.0	0.0	340587.9132071384;	%DE1 10 coal
	2	0.0	0.0	3	0.0	0.46499999999999997	0.0	0.0	12921.138822776289;	%DE1 10 onwind
	2	0.0	0.0	3	0.0	0.0	0.0	0.0	27523.632567689383;	%DE1 10 ror
	2	0.0	0.0	3	0.0	0.31	0.0	0.0	3527.6938173084773;	%DE1 10 solar
	2	254303.4869020414	101721.39476081656	3	0.0	1297.4667699083745	0.0	0.0	78498.69317484596;	%DE1 11 CCGT
	2	325214.1951219512	130085.67804878051	3	0.0	1659.2560975609756	0.0	0.0	35746.888799202134;	%DE1 11 OCGT
	2	2358.836170212766	943.5344680851064	3	0.0	461.70212765957444	0.0	0.0	9840.839070818929;	%DE1 11 biomass
	2	195308.07291666666	78123.22916666666	3	0.0	874.1060606060605	0.0	0.0	340587.91320713836;	%DE1 11 coal
	2	0.0	0.0	3	0.0	0.46499999999999986	0.0	0.0	12921.138822776287;	%DE1 11 onwind
	2	0.0	0.0	3	0.0	0.0	0.0	0.0	27523.632567689387;	%DE1 11 ror
	2	0.0	0.0	3	0.0	0.30999999999999994	0.0	0.0	3527.693817308477;	%DE1 11 solar
	2	236084.02758620694	94433.61103448279	3	0.0	1204.5103448275866	0.0	0.0	78498.69317484596;	%DE1 12 CCGT
	2	325214.1951219512	130085.67804878051	3	0.0	1659.2560975609758	0.0	0.0	35746.888799202134;	%DE1 12 OCGT
	2	2358.836170212766	943.5344680851065	3	0.0	461.7021276595745	0.0	0.0	9840.839070818929;	%DE1 12 biomass
	2	0.0	0.0	3	0.0	0.46499999999999997	0.0	0.0	12921.138822776289;	%DE1 12 onwind
	2	0.0	0.0	3	0.0	0.0	0.0	0.0	27523.632567689387;	%DE1 12 ror
	2	0.0	0.0	3	0.0	0.31	0.0	0.0	3527.693817308477;	%DE1 12 solar
	2	263721.511835623	105488.6047342492	3	0.0	1345.5179175286887	0.0	0.0	78498.69317484596;	%DE1 13 CCGT
	2	325214.1951219512	130085.67804878051	3	0.0	1659.2560975609758	0.0	0.0	35746.888799202134;	%DE1 13 OCGT
	2	2358.836170212766	943.5344680851065	3	0.0	461.7021276595745	0.0	0.0	9840.839070818929;	%DE1 13 biomass
	2	92196.76282414203	36878.70512965681	3	0.0	335.26095572415284	0.0	0.0	340587.9132071385;	%DE1 13 lignite
	2	0.0	0.0	3	0.0	4270.321475625824	0.0	0.0	6700.884872187999;	%DE1 13 oil
	2	0.0	0.0	3	0.0	0.46499999999999997	0.0	0.0	12921.138822776289;	%DE1 13 onwind
	2	0.0	0.0	3	0.0	0.0	0.0	0.0	27523.632567689387;	%DE1 13 ror
	2	0.0	0.0	3	0.0	0.31000000000000005	0.0	0.0	3527.6938173084777;	%DE1 13 solar
	2	268561.1661506522	107424.46646026087	3	0.0	1370.2100313808785	0.0	0.0	78498.69317484596;	%DE1 14 CCGT
	2	325214.1951219512	130085.67804878051	3	0.0	1659.2560975609756	0.0	0.0	35746.888799202134;	%DE1 14 OCGT
	2	2358.836170212766	943.5344680851065	3	0.0	461.7021276595745	0.0	0.0	9840.839070818929;	%DE1 14 biomass
	2	94353.4185803758	37741.36743215032	3	0.0	343.1033402922757	0.0	0.0	340587.9132071384;	%DE1 14 lignite
	2	0.0	0.0	3	0.0	0.46499999999999997	0.0	0.0	12921.138822776289;	%DE1 14 onwind
	2	0.0	0.0	3	0.0	0.0	0.0	0.0	27523.632567689387;	%DE1 14 ror
	2	0.0	0.0	3	0.0	0.31	0.0	0.0	3527.6938173084773;	%DE1 14 solar
	2	330533.1860139861	132213.27440559445	3	0.0	1686.3938061938065	0.0	0.0	78498.69317484596;	%DE1 15 CCGT
	2	325214.1951219512	130085.67804878051	3	0.0	1659.2560975609758	0.0	0.0	35746.888799202134;	%DE1 15 OCGT
	2	2358.836170212766	943.5344680851064	3	0.0	461.70212765957444	0.0	0.0	9840.839070818929;	%DE1 15 biomass
	2	0.0	0.0	3	0.0	4541.280438375543	0.0	0.0	6700.8848721879995;	%DE1 15 oil
	2	0.0	0.0	3	0.0	0.465	0.0	0.0	12921.13882277629;	%DE1 15 onwind
	2	0.0	0.0	3	0.0	0.0	0.0	0.0	27523.632567689387;	%DE1 15 ror
	2	0.0	0.0	3	0.0	0.30999999999999994	0.0	0.0	3527.693817308477;	%DE1 15 solar
	2	297558.27978253626	119023.3119130145	3	0.0	1518.1544886864094	0.0	0.0	78498.69317484596;	%DE1 16 CCGT
	2	325214.1951219512	130085.67804878051	3	0.0	1659.2560975609756	0.0	0.0	35746.888799202134;	%DE1 16 OCGT
	2	2358.836170212766	943.5344680851064	3	0.0	461.70212765957444	0.0	0.0	9840.839070818929;	%DE1 16 biomass
	2	195308.07291666666	78123.22916666666	3	0.0	874.1060606060605	0.0	0.0	340587.9132071384;	%DE1 16 coal
	2	0.0	0.0	3	0.0	0.4649999999999999	0.0	0.0	11238.673956489965;	%DE1 16 offwind
	2	0.0	0.0	3	0.0	0.465	0.0	0.0	12921.13882277629;	%DE1 16 onwind
	2	0.0	0.0	3	0.0	0.0	0.0	0.0	27523.632567689387;	%DE1 16 ror
	2	0.0	0.0	3	0.0	0.31	0.0	0.0	3527.6938173084773;	%DE1 16 solar
	2	374928.7607860928	149971.50431443713	3	0.0	1912.9018407453714	0.0	0.0	78498.69317484595;	%DE1 17 CCGT
	2	294345.9352864014	117738.37411456059	3	0.0	1501.7649759510277	0.0	0.0	35746.888799202134;	%DE1 17 OCGT
	2	2358.836170212766	943.5344680851065	3	0.0	461.7021276595745	0.0	0.0	9840.839070818929;	%DE1 17 biomass
	2	195308.07291666666	78123.22916666666	3	0.0	874.1060606060605	0.0	0.0	340587.9132071384;	%DE1 17 coal
	2	0.0	0.0	3	0.0	0.46499999999999997	0.0	0.0	12921.138822776289;	%DE1 17 onwind
	2	0.0	0.0	3	0.0	0.0	0.0	0.0	27523.632567689387;	%DE1 17 ror
	2	0.0	0.0	3	0.0	0.31000000000000005	0.0	0.0	3527.6938173084777;	%DE1 17 solar
	2	241138.66612204822	96455.46644881928	3	0.0	1230.2993169492254	0.0	0.0	78498.69317484596;	%DE1 18 CCGT
	2	325214.1951219512	130085.67804878051	3	0.0	1659.2560975609758	0.0	0.0	35746.888799202134;	%DE1 18 OCGT
	2	2358.836170212766	943.5344680851065	3	0.0	461.7021276595745	0.0	0.0	9840.839070818929;	%DE1 18 biomass
	2	0.0	0.0	3	0.0	0.46499999999999997	0.0	0.0	12921.138822776289;	%DE1 18 onwind
	2	0.0	0.0	3	0.0	0.0	0.0	0.0	27523.632567689383;	%DE1 18 ror
	2	0.0	0.0	3	0.0	0.31	0.0	0.0	3527.6938173084773;	%DE1 18 solar
	2	342918.90091132576	137167.56036453033	3	0.0	1749.5862291394171	0.0	0.0	78498.69317484596;	%DE1 19 CCGT
	2	325214.1951219512	130085.67804878051	3	0.0	1659.2560975609758	0.0	0.0	35746.888799202134;	%DE1 19 OCGT
	2	2358.836170212766	943.5344680851064	3	0.0	461.70212765957444	0.0	0.0	9840.839070818929;	%DE1 19 biomass
	2	195308.07291666666	78123.22916666666	3	0.0	874.1060606060605	0.0	0.0	340587.9132071384;	%DE1 19 coal
	2	0.0	0.0	3	0.0	4089.2989171493327	0.0	0.0	6700.884872187999;	%DE1 19 oil
	2	0.0	0.0	3	0.0	0.4649999999999999	0.0	0.0	12921.138822776289;	%DE1 19 onwind
	2	0.0	0.0	3	0.0	0.0	0.0	0.0	27523.632567689387;	%DE1 19 ror
	2	0.0	0.0	3	0.0	0.31	0.0	0.0	3527.6938173084773;	%DE1 19 solar
	2	257341.60271683865	102936.64108673546	3	0.0	1312.967360800197	0.0	0.0	78498.69317484596;	%DE1 2 CCGT
	2	304526.7480708126	121810.69922832504	3	0.0	1553.7078983204722	0.0	0.0	35746.888799202134;	%DE1 2 OCGT
	2	2358.836170212766	943.5344680851065	3	0.0	461.7021276595745	0.0	0.0	9840.83907081893;	%DE1 2 biomass
	2	97735.21066406442	39094.08426562577	3	0.0	355.40076605114336	0.0	0.0	340587.9132071384;	%DE1 2 lignite
	2	0.0	0.0	3	0.0	4264.408764821404	0.0	0.0	6700.884872187999;	%DE1 2 oil
	2	0.0	0.0	3	0.0	0.465	0.0	0.0	12921.138822776289;	%DE1 2 onwind
	2	0.0	0.0	3	0.0	0.0	0.0	0.0	27523.632567689387;	%DE1 2 ror
	2	0.0	0.0	3	0.0	0.31	0.0	0.0	3527.6938173084773;	%DE1 2 solar
	2	273131.50906701933	109252.60362680772	3	0.0	1393.5281074847924	0.0	0.0	78498.69317484596;	%DE1 20 CCGT
	2	325214.1951219512	130085.67804878051	3	0.0	1659.2560975609758	0.0	0.0	35746.888799202134;	%DE1 20 OCGT
	2	2358.836170212766	943.5344680851065	3	0.0	461.7021276595745	0.0	0.0	9840.839070818929;	%DE1 20 biomass
	2	0.0	0.0	3	0.0	0.46499999999999997	0.0	0.0	13385.501224563794;	%DE1 20 offwind
	2	0.0	0.0	3	0.0	0.465	0.0	0.0	12921.13882277629;	%DE1 20 onwind
	2	0.0	0.0	3	0.0	0.31000000000000005	0.0	0.0	3527.6938173084777;	%DE1 20 solar
	2	298458.8364567173	119383.53458268692	3	0.0	1522.7491655954962	0.0	0.0	78498.69317484596;	%DE1 21 CCGT
	2	325214.1951219512	130085.67804878051	3	0.0	1659.2560975609758	0.0	0.0	35746.888799202134;	%DE1 21 OCGT
	2	2358.836170212766	943.5344680851065	3	0.0	461.7021276595745	0.0	0.0	9840.839070818929;	%DE1 21 biomass
	2	0.0	0.0	3	0.0	0.46499999999999997	0.0	0.0	12921.138822776289;	%DE1 21 onwind
	2	0.0	0.0	3	0.0	0.0	0.0	0.0	27523.632567689383;	%DE1 21 ror
	2	0.0	0.0	3	0.0	0.31	0.0	0.0	3527.6938173084773;	%DE1 21 solar
	2	273218.49197460036	109287.39678984013	3	0.0	1393.9718978295934	0.0	0.0	78498.69317484595;	%DE1 22 CCGT
	2	325214.1951219512	130085.67804878051	3	0.0	1659.2560975609758	0.0	0.0	35746.888799202134;	%DE1 22 OCGT
	2	2358.836170212766	943.5344680851065	3	0.0	461.7021276595745	0.0	0.0	9840.839070818929;	%DE1 22 biomass
	2	0.0	0.0	3	0.0	0.4649999999999999	0.0	0.0	12921.138822776289;	%DE1 22 onwind
	2	0.0	0.0	3	0.0	0.0	0.0	0.0	27523.632567689383;	%DE1 22 ror
	2	0.0	0.0	3	0.0	0.31000000000000005	0.0	0.0	3527.6938173084773;	%DE1 22 solar
	2	272099.81367109023	108839.9254684361	3	0.0	1388.264355464746	0.0	0.0	78498.69317484596;	%DE1 23 CCGT
	2	325214.1951219512	130085.67804878051	3	0.0	1659.2560975609756	0.0	0.0	35746.88879920213;	%DE1 23 OCGT
	2	2358.836170212766	943.5344680851065	3	0.0	461.7021276595745	0.0	0.0	9840.83907081893;	%DE1 23 biomass
	2	92878.87986977218	37151.55194790887	3	0.0	337.7413813446261	0.0	0.0	340587.91320713836;	%DE1 23 lignite
	2	0.0	0.0	3	0.0	0.46499999999999997	0.0	0.0	12921.138822776289;	%DE1 23 onwind
	2	0.0	0.0	3	0.0	0.0	0.0	0.0	27523.632567689394;	%DE1 23 ror
	2	0.0	0.0	3	0.0	0.31	0.0	0.0	3527.6938173084773;	%DE1 23 solar
	2	236882.3784850134	94752.95139400536	3	0.0	1208.583563699048	0.0	0.0	78498.69317484596;	%DE1 24 CCGT
...
];
%% branch data
%	fbus	tbus	r	x	b	rateA	rateB	rateC	ratio	angle	status	angmin	angmax
mpc.branch = [
	1	57	0.009848253769131014	0.08075568090687432	2.055105533175459e-05	1698.1026117405274	1698.1026117405274	1698.1026117405274	0	0	1	-60	60;	%AL1 0 - GR1 0
	1	66	0.0030025768781929826	0.02462113040118246	1.0418231424248789e-05	2189.658630928575	2189.658630928575	2189.658630928575	0	0	1	-60	60;	%AL1 0 - ME1 0
	3	59	0.002477539458821819	0.020315823562338915	3.438590316494782e-05	4379.31726185715	4379.31726185715	4379.31726185715	0	0	1	-60	60;	%AT1 1 - HU1 0
	38	72	0.0032653759936150752	0.026776083147643612	2.7256374296166365e-05	3396.205223481055	3396.205223481055	3396.205223481055	0	0	1	-60	60;	%DE1 30 - PL1 0
	39	40	0.000510232763517388	0.004183908660842581	3.833061089139918e-05	10188.615670443165	10188.615670443165	10188.615670443165	0	0	1	-60	60;	%DE1 4 - DE1 5
	41	44	0.0010729514221203666	0.008798201661387006	2.867910413048456e-05	6077.419873597677	6077.419873597677	6077.419873597677	0	0	1	-60	60;	%DE1 6 - DE1 9
	41	51	0.002650536217296792	0.021734396981833697	5.9849630466145486e-05	5585.86385440963	5585.86385440963	5585.86385440963	0	0	1	-60	60;	%DE1 6 - FR1 0
	46	78	0.008840156449238027	0.07248928288375181	7.378954628448345e-05	3396.205223481055	3396.205223481055	3396.205223481055	0	0	1	-60	60;	%DK2 0 - SE2 0
	47	65	0.003946355190980939	0.0323601125660437	2.5984323908562167e-05	3016.3664813811993	3016.3664813811993	3016.3664813811993	0	0	1	-60	60;	%EE6 0 - LV6 0
	48	54	0.00605164379426094	0.049623479112939704	8.399108912564838e-05	4379.31726185715	4379.31726185715	4379.31726185715	0	0	1	-60	60;	%ES1 0 - FR1 3
	48	75	0.0012062259975185962	0.00989105317965249	0.00019796854473826301	15059.488951488362	15059.488951488362	15059.488951488362	0	0	1	-60	60;	%ES1 0 - PT1 0
	50	78	0.00638205563753237	0.052332856227765435	5.3271567371009e-05	3396.205223481055	3396.205223481055	3396.205223481055	0	0	1	-60	60;	%FI2 0 - SE2 0
	51	53	0.0010728816871519685	0.00879762983464614	0.00027873483613986795	18947.250194157463	18947.250194157463	18947.250194157463	0	0	1	-60	60;	%FR1 0 - FR1 2
	3	79	0.002732883531958773	0.02240964496206194	2.2811613915380008e-05	3396.205223481055	3396.205223481055	3396.205223481055	0	0	1	-60	60;	%AT1 1 - SI1 0
	51	54	0.0013647431152118486	0.011190893544737159	0.0001136007241690709	10724.858600466488	10724.858600466488	10724.858600466488	0	0	1	-60	60;	%FR1 0 - FR1 3
	51	61	0.004080374307837533	0.033459069324267766	9.213565651130483e-05	5585.86385440963	5585.86385440963	5585.86385440963	0	0	1	-60	60;	%FR1 0 - IT1 0
	52	53	0.00107621333540302	0.008824949350304763	0.00016630357252063908	14612.619843135592	14612.619843135592	14612.619843135592	0	0	1	-60	60;	%FR1 1 - FR1 2
	52	54	0.0019497586304826717	0.01598802076995791	0.00012073390474050234	9250.190542902346	9250.190542902346	9250.190542902346	0	0	1	-60	60;	%FR1 1 - FR1 3
	53	54	0.0025923858038513696	0.021257563591581232	0.0001513559344758329	8982.069077890685	8982.069077890685	8982.069077890685	0	0	1	-60	60;	%FR1 2 - FR1 3
	56	60	0.010361795849826232	0.08496672596857512	7.2474978884987885e-06	983.1120383760948	983.1120383760948	983.1120383760948	0	0	1	-60	60;	%GB5 0 - IE5 0
	57	67	0.004004202725752439	0.03283446235117	3.342342458088874e-05	3396.205223481055	3396.205223481055	3396.205223481055	0	0	1	-60	60;	%GR1 0 - MK1 0
	58	59	0.001988073686819386	0.016302204231918964	6.637848828712408e-05	6792.41044696211	6792.41044696211	6792.41044696211	0	0	1	-60	60;	%HR1 0 - HU1 0
	58	77	0.009775397280548185	0.08015825770049513	2.0399020487482383e-05	1698.1026117405274	1698.1026117405274	1698.1026117405274	0	0	1	-60	60;	%HR1 0 - RS1 0
	58	79	0.001061017767836014	0.008700345696255314	2.8360127421173892e-05	6077.419873597677	6077.419873597677	6077.419873597677	0	0	1	-60	60;	%HR1 0 - SI1 0
	4	29	0.002639158226999958	0.021641097461399656	1.1537149275816151e-05	2457.780095940237	2457.780095940237	2457.780095940237	0	0	1	-60	60;	%AT1 2 - DE1 22
	59	76	0.006636093665607568	0.054415968057982045	5.539204464291175e-05	3396.205223481055	3396.205223481055	3396.205223481055	0	0	1	-60	60;	%HU1 0 - RO1 0
	59	77	0.009655208499685108	0.07917270969741788	2.0148213964450305e-05	1698.1026117405274	1698.1026117405274	1698.1026117405274	0	0	1	-60	60;	%HU1 0 - RS1 0
	59	80	0.0020794721545383987	0.017051671667214868	1.7357532943642834e-05	3396.205223481055	3396.205223481055	3396.205223481055	0	0	1	-60	60;	%HU1 0 - SK1 0
	61	79	0.007514020690225535	0.06161496965984938	2.607187414447671e-05	2189.658630928575	2189.658630928575	2189.658630928575	0	0	1	-60	60;	%IT1 0 - SI1 0
	63	65	0.002102615191994796	0.017241444574357327	2.4612318201292353e-05	4021.8219751749325	4021.8219751749325	4021.8219751749325	0	0	1	-60	60;	%LT6 0 - LV6 0
	66	77	0.003126505250815498	0.025637343056687086	1.6265573015727845e-05	2681.214650116622	2681.214650116622	2681.214650116622	0	0	1	-60	60;	%ME1 0 - RS1 0
	67	77	0.003785008600601789	0.03103707052493467	3.1593792363861075e-05	3396.205223481055	3396.205223481055	3396.205223481055	0	0	1	-60	60;	%MK1 0 - RS1 0
	68	69	0.0004899152511401901	0.004017305059349559	2.5558529639059286e-05	8490.513058702638	8490.513058702638	8490.513058702638	0	0	1	-60	60;	%NL1 0 - NL1 1
	68	70	0.0011147204529037096	0.00914070771381042	2.319723200733621e-05	5362.429300233244	5362.429300233244	5362.429300233244	0	0	1	-60	60;	%NL1 0 - NL1 2
	71	78	0.0024786328048168375	0.02032478899949807	9.516891246805635e-05	7283.966466150157	7283.966466150157	7283.966466150157	0	0	1	-60	60;	%NO2 0 - SE2 0
	4	61	0.04037786281789155	0.33109847510671064	7.0605153719485375e-06	491.5560191880474	491.5560191880474	491.5560191880474	0	0	1	-60	60;	%AT1 2 - IT1 0
	72	73	0.0014842608790906601	0.012170939208543414	8.665827903660599e-05	8982.069077890685	8982.069077890685	8982.069077890685	0	0	1	-60	60;	%PL1 0 - PL1 1
	72	74	0.0006013427569849779	0.004931010607276819	0.00011514167846612092	16266.03554404084	16266.03554404084	16266.03554404084	0	0	1	-60	60;	%PL1 0 - PL1 2
	73	74	0.0013940295717832655	0.011431042488622778	7.739124508185759e-05	8758.6345237143	8758.6345237143	8758.6345237143	0	0	1	-60	60;	%PL1 1 - PL1 2
	73	80	0.0035759004379597088	0.02932238359126961	2.9848348543455497e-05	3396.205223481055	3396.205223481055	3396.205223481055	0	0	1	-60	60;	%PL1 1 - SK1 0
	76	77	0.003324374066655655	0.027259867346576365	6.243488164499935e-05	5094.3078352215825	5094.3078352215825	5094.3078352215825	0	0	1	-60	60;	%RO1 0 - RS1 0
	4	79	0.01536441857577189	0.12598823232132947	2.6866383202238474e-06	491.5560191880474	491.5560191880474	491.5560191880474	0	0	1	-60	60;	%AT1 2 - SI1 0
	5	58	0.0018083930284160529	0.014828822833011634	3.763249569104315e-05	5362.429300233244	5362.429300233244	5362.429300233244	0	0	1	-60	60;	%BA1 0 - HR1 0
	5	66	0.0022858595658064302	0.018744048439612727	1.1892132809188925e-05	2681.214650116622	2681.214650116622	2681.214650116622	0	0	1	-60	60;	%BA1 0 - ME1 0
	5	77	0.004149698224123457	0.03402752543781235	1.439847111116458e-05	2189.658630928575	2189.658630928575	2189.658630928575	0	0	1	-60	60;	%BA1 0 - RS1 0
	6	53	0.0009524083278878751	0.007809748288680577	6.18589594712856e-05	9473.625097078731	9473.625097078731	9473.625097078731	0	0	1	-60	60;	%BE1 0 - FR1 2
	6	64	0.007463517643991826	0.06120084468073299	5.220314041075356e-06	983.1120383760948	983.1120383760948	983.1120383760948	0	0	1	-60	60;	%BE1 0 - LU1 0
	1	67	0.003649247216798554	0.02992382717774814	7.615145103871138e-06	1698.1026117405274	1698.1026117405274	1698.1026117405274	0	0	1	-60	60;	%AL1 0 - MK1 0
	6	68	0.002155539104924096	0.01767542066037759	1.799247032155414e-05	3396.205223481055	3396.205223481055	3396.205223481055	0	0	1	-60	60;	%BE1 0 - NL1 0
	6	69	0.0016901942489662449	0.013859592841523207	1.4108196781360417e-05	3396.205223481055	3396.205223481055	3396.205223481055	0	0	1	-60	60;	%BE1 0 - NL1 1
	7	57	0.011809656492733411	0.09683918324041399	2.4644054643668527e-05	1698.1026117405274	1698.1026117405274	1698.1026117405274	0	0	1	-60	60;	%BG1 0 - GR1 0
	7	67	0.0074365203689532805	0.0609794670254169	1.5518318796486916e-05	1698.1026117405274	1698.1026117405274	1698.1026117405274	0	0	1	-60	60;	%BG1 0 - MK1 0
	7	76	0.0020229105724174743	0.016587866693823287	6.754163420971416e-05	6792.41044696211	6792.41044696211	6792.41044696211	0	0	1	-60	60;	%BG1 0 - RO1 0
	7	77	0.009266320797298841	0.07598383053785052	1.9336694188768876e-05	1698.1026117405274	1698.1026117405274	1698.1026117405274	0	0	1	-60	60;	%BG1 0 - RS1 0
	8	9	0.0005507207166349191	0.004515909876406337	3.782266319002479e-05	9741.746562090395	9741.746562090395	9741.746562090395	0	0	1	-60	60;	%CH1 0 - CH1 1
	8	10	0.00016477627771016023	0.001351165477223314	7.046933800368371e-05	24309.679494390708	24309.679494390708	24309.679494390708	0	0	1	-60	60;	%CH1 0 - CH1 2
	8	41	0.00011519209038080163	0.0009445751411225734	6.153717035987137e-05	27169.64178784844	27169.64178784844	27169.64178784844	0	0	1	-60	60;	%CH1 0 - DE1 6
	8	51	0.003621512378457632	0.029696401503352583	3.022907533418856e-05	3396.205223481055	3396.205223481055	3396.205223481055	0	0	1	-60	60;	%CH1 0 - FR1 0
	1	77	0.005794692518950292	0.047516478655392394	2.010621214505574e-05	2189.658630928575	2189.658630928575	2189.658630928575	0	0	1	-60	60;	%AL1 0 - RS1 0
	8	61	0.04389408591963397	0.3599315045409986	7.675365825352236e-06	491.5560191880474	491.5560191880474	491.5560191880474	0	0	1	-60	60;	%CH1 0 - IT1 0
	9	51	0.0010930238930680926	0.008962795923158358	3.1850338235695625e-05	6345.541338609339	6345.541338609339	6345.541338609339	0	0	1	-60	60;	%CH1 1 - FR1 0
	9	61	0.021717856717505243	0.17808642508354303	1.519042866545939e-05	983.1120383760948	983.1120383760948	983.1120383760948	0	0	1	-60	60;	%CH1 1 - IT1 0
	10	61	0.0026251972251174534	0.02152661724596312	8.765098819734068e-05	6792.41044696211	6792.41044696211	6792.41044696211	0	0	1	-60	60;	%CH1 2 - IT1 0
	11	13	0.000634489722408341	0.005202815723748396	4.12101331688749e-05	9473.625097078731	9473.625097078731	9473.625097078731	0	0	1	-60	60;	%CZ1 0 - CZ1 2
	11	73	0.002227559871851336	0.018265990949180952	3.091642305629665e-05	4379.31726185715	4379.31726185715	4379.31726185715	0	0	1	-60	60;	%CZ1 0 - PL1 1
	11	80	0.0028768190706138018	0.023589916379033175	9.981881583456518e-06	2189.658630928575	2189.658630928575	2189.658630928575	0	0	1	-60	60;	%CZ1 0 - SK1 0
	12	13	0.000531914327083239	0.00436169748208256	5.687052017609612e-05	12154.839747195354	12154.839747195354	12154.839747195354	0	0	1	-60	60;	%CZ1 1 - CZ1 2
	12	19	0.001998955010071349	0.016391431082585062	1.668544941294266e-05	3396.205223481055	3396.205223481055	3396.205223481055	0	0	1	-60	60;	%CZ1 1 - DE1 13
	12	33	0.0018858294110831015	0.01546380117088143	1.574118030747646e-05	3396.205223481055	3396.205223481055	3396.205223481055	0	0	1	-60	60;	%CZ1 1 - DE1 26
	2	4	0.011142543399622241	0.09136885587690238	7.793587224807424e-06	983.1120383760948	983.1120383760948	983.1120383760948	0	0	1	-60	60;	%AT1 0 - AT1 2
	13	80	0.002863658689152377	0.023482001251049496	3.132329669023371e-05	3887.761242669102	3887.761242669102	3887.761242669102	0	0	1	-60	60;	%CZ1 2 - SK1 0
	14	25	0.0005051446904236339	0.004142186461473798	2.2101512403797233e-05	7775.522485338204	7775.522485338204	7775.522485338204	0	0	1	-60	60;	%DE1 0 - DE1 19
	14	34	0.0013121269161922276	0.010759440712776269	2.464298152767577e-05	5094.3078352215825	5094.3078352215825	5094.3078352215825	0	0	1	-60	60;	%DE1 0 - DE1 27
	14	35	0.0006718564668294158	0.0055092230280012104	2.243217487849409e-05	6792.41044696211	6792.41044696211	6792.41044696211	0	0	1	-60	60;	%DE1 0 - DE1 28
	14	36	0.001009691948924141	0.008279473981177957	1.8962967483501684e-05	5094.3078352215825	5094.3078352215825	5094.3078352215825	0	0	1	-60	60;	%DE1 0 - DE1 29
	14	44	0.0002887391444232344	0.0023676609842705216	3.4609740670630006e-05	12869.830320559788	12869.830320559788	12869.830320559788	0	0	1	-60	60;	%DE1 0 - DE1 9
	15	17	0.0012915441538759334	0.010590662061782654	1.0780630147003422e-05	3396.205223481055	3396.205223481055	3396.205223481055	0	0	1	-60	60;	%DE1 1 - DE1 11
	15	19	0.00465747787392596	0.03819131856619288	3.2576458314968927e-06	983.1120383760948	983.1120383760948	983.1120383760948	0	0	1	-60	60;	%DE1 1 - DE1 13
	15	20	0.0012468716567753148	0.010224347585557582	1.7305398667346725e-05	4379.31726185715	4379.31726185715	4379.31726185715	0	0	1	-60	60;	%DE1 1 - DE1 14
	15	22	0.0019572215977576688	0.016049217101612882	2.7164383636030654e-05	4379.31726185715	4379.31726185715	4379.31726185715	0	0	1	-60	60;	%DE1 1 - DE1 16
	2	10	0.0007326169992604624	0.0060074593939357926	2.446086844102805e-05	6792.41044696211	6792.41044696211	6792.41044696211	0	0	1	-60	60;	%AT1 0 - CH1 2
	15	42	0.0006219923471381345	0.005100337246532703	4.672641261063871e-05	10188.615670443165	10188.615670443165	10188.615670443165	0	0	1	-60	60;	%DE1 1 - DE1 7
	16	26	0.00017790560506357662	0.0014588259615213285	3.830645340906521e-05	17249.14758241694	17249.14758241694	17249.14758241694	0	0	1	-60	60;	%DE1 10 - DE1 2
	16	27	0.0005348352218262043	0.004385648818974876	4.017884041297315e-05	10188.615670443165	10188.615670443165	10188.615670443165	0	0	1	-60	60;	%DE1 10 - DE1 20
	16	28	0.0013353909906076988	0.010950206122983131	1.1146623464771646e-05	3396.205223481055	3396.205223481055	3396.205223481055	0	0	1	-60	60;	%DE1 10 - DE1 21
	16	35	0.0007391173423038872	0.006060762206891875	1.9755995273942813e-05	6077.419873597677	6077.419873597677	6077.419873597677	0	0	1	-60	60;	%DE1 10 - DE1 28
	17	28	0.005243059850527828	0.04299309077432819	3.6672277418600615e-06	983.1120383760948	983.1120383760948	983.1120383760948	0	0	1	-60	60;	%DE1 11 - DE1 21
	17	34	0.0008859347874295713	0.007264665256922485	2.9579895504090602e-05	6792.41044696211	6792.41044696211	6792.41044696211	0	0	1	-60	60;	%DE1 11 - DE1 27
	17	40	0.00202520713078947	0.016606698472473657	1.6904578122702386e-05	3396.205223481055	3396.205223481055	3396.205223481055	0	0	1	-60	60;	%DE1 11 - DE1 5
	18	26	0.0018182629539204328	0.014909756222147548	1.5177197277683697e-05	3396.205223481055	3396.205223481055	3396.205223481055	0	0	1	-60	60;	%DE1 12 - DE1 2
	18	36	0.00031243146660446834	0.0025619380261566404	1.2895431566229906e-05	7552.087931161819	7552.087931161819	7552.087931161819	0	0	1	-60	60;	%DE1 12 - DE1 29
	2	21	0.00042604213625309145	0.0034935455172753495	3.200589322308622e-05	10188.615670443165	10188.615670443165	10188.615670443165	0	0	1	-60	60;	%AT1 0 - DE1 15
	18	64	0.0005255986178347835	0.004309908666245225	4.503429508745543e-06	3440.892134316332	3440.892134316332	3440.892134316332	0	0	1	-60	60;	%DE1 12 - LU1 0
	19	20	0.0003449140046307893	0.002828294837972472	3.115290496321431e-05	11171.727708819259	11171.727708819259	11171.727708819259	0	0	1	-60	60;	%DE1 13 - DE1 14
	19	30	0.0005287825566012444	0.004336016964130204	3.9724141357595986e-05	10188.615670443165	10188.615670443165	10188.615670443165	0	0	1	-60	60;	%DE1 13 - DE1 23
	20	24	0.0012604416379726603	0.010335621431375815	1.0521014771417364e-05	3396.205223481055	3396.205223481055	3396.205223481055	0	0	1	-60	60;	%DE1 14 - DE1 18
	20	33	0.0016221768237736083	0.013301849954943589	1.3540449482630645e-05	3396.205223481055	3396.205223481055	3396.205223481055	0	0	1	-60	60;	%DE1 14 - DE1 26
	20	43	0.0008689379192088059	0.007125290937512208	1.6319473998674204e-05	5094.3078352215825	5094.3078352215825	5094.3078352215825	0	0	1	-60	60;	%DE1 14 - DE1 8
	21	23	0.0004117871530302271	0.0033766546548478623	3.09350050829121e-05	10188.615670443165	10188.615670443165	10188.615670443165	0	0	1	-60	60;	%DE1 15 - DE1 17
	21	31	0.0004085824477143221	0.0033503760712574413	4.1778292241730285e-05	11886.718282183692	11886.718282183692	11886.718282183692	0	0	1	-60	60;	%DE1 15 - DE1 24
	22	38	0.0010310273498359748	0.008454424268654993	2.1455586086855507e-05	5362.429300233244	5362.429300233244	5362.429300233244	0	0	1	-60	60;	%DE1 16 - DE1 30
	22	40	0.0015842456224638242	0.012990814104203358	1.3223834482574213e-05	3396.205223481055	3396.205223481055	3396.205223481055	0	0	1	-60	60;	%DE1 16 - DE1 5
	2	37	0.001865398107548837	0.015296264481900463	1.5570638459438928e-05	3396.205223481055	3396.205223481055	3396.205223481055	0	0	1	-60	60;	%AT1 0 - DE1 3
	23	25	0.0008727940639613091	0.007156911324482735	2.9141148507636023e-05	6792.41044696211	6792.41044696211	6792.41044696211	0	0	1	-60	60;	%DE1 17 - DE1 19
	23	41	0.0008774579620386702	0.007195155288717096	2.929686834133883e-05	6792.41044696211	6792.41044696211	6792.41044696211	0	0	1	-60	60;	%DE1 17 - DE1 6
	23	44	0.0002395409350720577	0.0019642356675908736	3.199150063377277e-05	13584.82089392422	13584.82089392422	13584.82089392422	0	0	1	-60	60;	%DE1 17 - DE1 9
	24	34	0.001063201323595739	0.008718250853485057	8.874632901316362e-06	3396.205223481055	3396.205223481055	3396.205223481055	0	0	1	-60	60;	%DE1 18 - DE1 27
	25	34	0.001906254968102028	0.015631290738436634	1.591167418885617e-05	3396.205223481055	3396.205223481055	3396.205223481055	0	0	1	-60	60;	%DE1 19 - DE1 27
	25	43	0.0004111150147494162	0.0033711431209452135	2.6701936859181955e-05	9473.625097078733	9473.625097078733	9473.625097078733	0	0	1	-60	60;	%DE1 19 - DE1 8
	26	27	0.0022608402690297673	0.01853889020604409	1.8871428196021978e-05	3396.205223481055	3396.205223481055	3396.205223481055	0	0	1	-60	60;	%DE1 2 - DE1 20
	26	35	0.00023772381581295372	0.0019493352896662204	5.551783262518328e-05	17964.13815578137	17964.13815578137	17964.13815578137	0	0	1	-60	60;	%DE1 2 - DE1 28
	26	68	0.0007377846339906737	0.006049833998723524	2.463340720741565e-05	6792.41044696211	6792.41044696211	6792.41044696211	0	0	1	-60	60;	%DE1 2 - NL1 0
	27	28	0.000654694841269729	0.005368497698411779	2.185917661954919e-05	6792.41044696211	6792.41044696211	6792.41044696211	0	0	1	-60	60;	%DE1 20 - DE1 21
	3	4	0.0007068548971005748	0.005796210156224713	5.8838346424348566e-05	10724.858600466488	10724.858600466488	10724.858600466488	0	0	1	-60	60;	%AT1 1 - AT1 2
	27	39	0.0006135079820246051	0.005030765452601762	2.0484015592012154e-05	6792.41044696211	6792.41044696211	6792.41044696211	0	0	1	-60	60;	%DE1 20 - DE1 4
	27	68	0.0015649026883622623	0.012832202044570551	1.3062377347809596e-05	3396.205223481055	3396.205223481055	3396.205223481055	0	0	1	-60	60;	%DE1 20 - NL1 0
	27	70	0.0010748032682019822	0.008813386799256253	8.971475330907777e-06	3396.205223481055	3396.205223481055	3396.205223481055	0	0	1	-60	60;	%DE1 20 - NL1 2
	28	34	0.0015993873537731356	0.013114976300939715	1.3350223816257553e-05	3396.205223481055	3396.205223481055	3396.205223481055	0	0	1	-60	60;	%DE1 21 - DE1 27
	28	39	0.00043942516585081557	0.0036032863599766885	3.9689227594132734e-05	11171.727708819259	11171.727708819259	11171.727708819259	0	0	1	-60	60;	%DE1 21 - DE1 4
	29	31	0.0044937390309271906	0.03684866005360296	3.1431196493468435e-06	983.1120383760948	983.1120383760948	983.1120383760948	0	0	1	-60	60;	%DE1 22 - DE1 24
	29	33	0.0014729780917783917	0.012078420352582813	1.2295074833056857e-05	3396.205223481055	3396.205223481055	3396.205223481055	0	0	1	-60	60;	%DE1 22 - DE1 26
	29	37	0.0007764764146780624	0.006367106600360111	1.4582959702645223e-05	5094.3078352215825	5094.3078352215825	5094.3078352215825	0	0	1	-60	60;	%DE1 22 - DE1 3
...